ac_opf/testcases/nesta_case162_ieee_dtc__sad.m
%%%%%%%%%%%%%%%%%%%%%%%%%%%%%%%%%%%%%%%%%%%%%%%%%%%%%%%%%%%%%%%%%%%%%%%%%%%
%%%%                                                                  %%%%%
%%%%      NICTA Energy System Test Case Archive (NESTA) - v0.7.0      %%%%%
%%%%           Optimal Power Flow - Small Angle Difference            %%%%%
%%%%                         05 - June - 2017                         %%%%%
%%%%                                                                  %%%%%
%%%%%%%%%%%%%%%%%%%%%%%%%%%%%%%%%%%%%%%%%%%%%%%%%%%%%%%%%%%%%%%%%%%%%%%%%%%
function mpc = nesta_case162_ieee_dtc__sad
mpc.version = '2';
mpc.baseMVA = 100.0;

%% bus data
%	bus_i	type	Pd	Qd	Gs	Bs	area	Vm	Va	baseKV	zone	Vmax	Vmin
mpc.bus = [
	1	 1	 0.0	 0.0	 0.0	 -100.0	 1	    1.02789	    2.32884	 345.0	 9	    1.06000	    0.94000;
	2	 1	 0.0	 0.0	 0.0	 0.0	 1	    1.02270	   -2.78580	 345.0	 9	    1.06000	    0.94000;
	3	 1	 370.0	 96.9	 0.0	 0.0	 1	    0.99204	   -5.87819	 161.0	 12	    1.06000	    0.94000;
	4	 1	 0.0	 0.0	 0.0	 0.0	 1	    1.00676	   -7.11298	 345.0	 3	    1.06000	    0.94000;
	5	 1	 0.0	 0.0	 0.0	 -50.0	 1	    1.04349	    3.07882	 345.0	 8	    1.06000	    0.94000;
	6	 2	 0.0	 0.0	 0.0	 0.0	 1	    0.98181	    9.45996	 22.0	 9	    1.06000	    0.94000;
	7	 1	 0.0	 0.0	 0.0	 0.0	 1	    1.01759	   -3.11439	 345.0	 9	    1.06000	    0.94000;
	8	 1	 398.0	 0.0	 0.0	 0.0	 1	    1.03745	   -6.59509	 115.0	 12	    1.06000	    0.94000;
	9	 1	 0.0	 0.0	 0.0	 0.0	 1	    1.01971	   -0.32041	 345.0	 8	    1.06000	    0.94000;
	10	 1	 226.0	 0.0	 0.0	 0.0	 1	    0.99714	  -11.13504	 230.0	 12	    1.06000	    0.94000;
	11	 1	 0.0	 0.0	 0.0	 0.0	 1	    1.00781	   -7.59751	 230.0	 10	    1.06000	    0.94000;
	12	 1	 193.0	 0.0	 0.0	 0.0	 1	    1.03916	   -6.44751	 115.0	 12	    1.06000	    0.94000;
	13	 1	 204.0	 0.0	 0.0	 0.0	 1	    1.02605	   -4.20889	 345.0	 12	    1.06000	    0.94000;
	14	 1	 381.0	 0.0	 0.0	 0.0	 1	    1.03513	   -3.47090	 161.0	 12	    1.06000	    0.94000;
	15	 1	 -80.0	 0.0	 0.0	 0.0	 1	    1.02389	    0.31902	 230.0	 12	    1.06000	    0.94000;
	16	 1	 -54.2	 0.0	 0.0	 0.0	 1	    1.05431	   -4.88473	 161.0	 12	    1.06000	    0.94000;
	17	 1	 -116.5	 0.0	 0.0	 0.0	 1	    1.05713	   -4.26779	 161.0	 12	    1.06000	    0.94000;
	18	 1	 34.4	 11.67	 0.0	 0.0	 1	    1.06000	   -8.62106	 161.0	 6	    1.06000	    0.94000;
	19	 1	 64.4	 0.0	 0.0	 0.0	 1	    0.99877	  -12.72405	 161.0	 12	    1.06000	    0.94000;
	20	 1	 37.9	 12.5	 0.0	 0.0	 1	    0.98680	   -9.22331	 69.0	 10	    1.06000	    0.94000;
	21	 1	 -69.8	 0.0	 0.0	 0.0	 1	    1.04451	   -5.55663	 161.0	 12	    1.06000	    0.94000;
	22	 1	 17.39	 5.27	 0.0	 0.0	 1	    1.02558	  -12.08144	 161.0	 6	    1.06000	    0.94000;
	23	 1	 63.5	 0.0	 0.0	 0.0	 1	    1.00043	  -10.01670	 161.0	 12	    1.06000	    0.94000;
	24	 1	 0.0	 0.0	 0.0	 0.0	 1	    1.00889	   -8.28086	 161.0	 6	    1.06000	    0.94000;
	25	 1	 0.0	 0.0	 0.0	 -50.0	 1	    0.99384	   -4.24690	 345.0	 6	    1.06000	    0.94000;
	26	 1	 0.0	 0.0	 0.0	 -50.0	 1	    1.00175	    4.22153	 345.0	 1	    1.06000	    0.94000;
	27	 1	 324.0	 57.9	 0.0	 0.0	 1	    0.99950	   -5.36582	 345.0	 12	    1.06000	    0.94000;
	28	 1	 38.47	 13.17	 0.0	 0.0	 1	    0.99024	  -11.05682	 161.0	 6	    1.06000	    0.94000;
	29	 1	 28.31	 9.03	 0.0	 0.0	 1	    0.99271	  -12.79131	 161.0	 6	    1.06000	    0.94000;
	30	 1	 101.2	 32.52	 0.0	 15.0	 1	    1.01172	  -14.53650	 161.0	 6	    1.06000	    0.94000;
	31	 1	 72.5	 0.0	 0.0	 0.0	 1	    0.99215	  -11.94776	 161.0	 12	    1.06000	    0.94000;
	32	 1	 52.7	 15.06	 0.0	 20.0	 1	    1.01313	  -15.75471	 161.0	 6	    1.06000	    0.94000;
	33	 1	 45.17	 15.06	 0.0	 20.0	 1	    0.99774	  -17.65059	 161.0	 6	    1.06000	    0.94000;
	34	 1	 14.18	 5.25	 0.0	 3.2	 1	    0.98794	  -17.55861	 161.0	 1	    1.06000	    0.94000;
	35	 1	 54.48	 14.63	 0.0	 5.0	 1	    0.98334	  -19.03149	 161.0	 1	    1.06000	    0.94000;
	36	 1	 31.96	 8.68	 0.0	 3.0	 1	    0.99250	  -17.85870	 161.0	 2	    1.06000	    0.94000;
	37	 1	 0.0	 0.0	 0.0	 0.0	 1	    0.99862	   -5.41645	 345.0	 11	    1.06000	    0.94000;
	38	 1	 14.76	 4.08	 0.0	 1.5	 1	    1.00852	  -12.63247	 161.0	 2	    1.06000	    0.94000;
	39	 1	 0.0	 0.0	 0.0	 0.0	 1	    0.97686	   -7.58067	 345.0	 6	    1.06000	    0.94000;
	40	 1	 52.88	 17.6	 0.0	 0.0	 1	    0.98739	  -16.53587	 161.0	 1	    1.06000	    0.94000;
	41	 1	 39.2	 12.8	 0.0	 0.0	 1	    0.98853	  -14.52621	 161.0	 1	    1.06000	    0.94000;
	42	 1	 0.0	 0.0	 0.0	 0.0	 1	    0.98086	   -7.13078	 345.0	 2	    1.06000	    0.94000;
	43	 1	 41.5	 0.0	 0.0	 0.0	 1	    0.98387	  -10.34002	 161.0	 12	    1.06000	    0.94000;
	44	 1	 16.32	 3.71	 0.0	 0.0	 1	    0.97605	  -10.77043	 161.0	 2	    1.06000	    0.94000;
	45	 1	 20.02	 5.41	 0.0	 1.9	 1	    0.99018	  -11.33133	 161.0	 2	    1.06000	    0.94000;
	46	 1	 65.31	 22.3	 0.0	 26.2	 1	    0.99384	  -14.24246	 161.0	 10	    1.06000	    0.94000;
	47	 1	 4.82	 1.56	 0.0	 0.0	 1	    0.97052	  -16.39379	 161.0	 2	    1.06000	    0.94000;
	48	 1	 33.76	 22.86	 0.0	 0.0	 1	    0.96595	  -14.43100	 161.0	 10	    1.06000	    0.94000;
	49	 1	 6.82	 1.78	 0.0	 0.0	 1	    0.96861	  -16.75437	 161.0	 2	    1.06000	    0.94000;
	50	 1	 99.7	 0.0	 0.0	 0.0	 1	    0.96496	  -13.14407	 161.0	 12	    1.06000	    0.94000;
	51	 1	 0.0	 0.0	 0.0	 0.0	 1	    0.96650	  -11.55326	 161.0	 3	    1.06000	    0.94000;
	52	 1	 218.2	 42.8	 0.0	 0.0	 1	    1.00188	  -13.33568	 161.0	 3	    1.06000	    0.94000;
	53	 1	 0.0	 0.0	 0.0	 0.0	 1	    1.00195	   -7.03408	 161.0	 10	    1.06000	    0.94000;
	54	 1	 70.34	 29.57	 0.0	 0.0	 1	    0.97955	  -13.12982	 161.0	 10	    1.06000	    0.94000;
	55	 1	 0.0	 0.0	 0.0	 0.0	 1	    1.00226	   -6.82801	 161.0	 1	    1.06000	    0.94000;
	56	 1	 25.29	 7.26	 0.0	 3.2	 1	    0.98286	  -15.52722	 161.0	 7	    1.06000	    0.94000;
	57	 1	 48.48	 15.61	 0.0	 0.0	 1	    0.98090	  -12.79744	 161.0	 1	    1.06000	    0.94000;
	58	 1	 0.0	 0.0	 0.0	 0.0	 1	    1.01747	   -4.08509	 230.0	 10	    1.06000	    0.94000;
	59	 1	 84.43	 27.05	 0.0	 0.0	 1	    0.99535	   -8.59154	 230.0	 10	    1.06000	    0.94000;
	60	 1	 244.0	 0.0	 0.0	 0.0	 1	    1.01344	   -9.23834	 115.0	 12	    1.06000	    0.94000;
	61	 1	 0.0	 0.0	 0.0	 0.0	 1	    0.99837	   -6.76182	 230.0	 10	    1.06000	    0.94000;
	62	 1	 -865.6	 0.0	 0.0	 0.0	 1	    1.02712	    6.43505	 230.0	 12	    1.06000	    0.94000;
	63	 1	 59.1	 0.0	 0.0	 0.0	 1	    1.00019	   -5.03733	 230.0	 12	    1.06000	    0.94000;
	64	 1	 0.0	 0.0	 0.0	 0.0	 1	    1.03768	   -4.42430	 345.0	 10	    1.06000	    0.94000;
	65	 1	 -26.3	 0.0	 0.0	 0.0	 1	    1.03496	   -0.71677	 345.0	 12	    1.06000	    0.94000;
	66	 1	 0.0	 0.0	 0.0	 -50.0	 1	    1.01188	   -6.80611	 345.0	 10	    1.06000	    0.94000;
	67	 1	 22.54	 7.03	 0.0	 6.0	 1	    0.99156	  -16.52382	 161.0	 7	    1.06000	    0.94000;
	68	 1	 40.42	 12.68	 0.0	 12.0	 1	    1.00009	  -14.80093	 161.0	 7	    1.06000	    0.94000;
	69	 1	 0.0	 0.0	 0.0	 0.0	 1	    1.00538	  -13.38586	 161.0	 1	    1.06000	    0.94000;
	70	 1	 0.0	 0.0	 0.0	 0.0	 1	    1.03133	   -1.50260	 161.0	 1	    1.06000	    0.94000;
	71	 1	 29.87	 11.93	 0.0	 12.0	 1	    0.99318	   -8.76415	 161.0	 1	    1.06000	    0.94000;
	72	 1	 427.0	 0.0	 0.0	 0.0	 1	    1.02360	   -3.32297	 161.0	 12	    1.06000	    0.94000;
	73	 2	 0.0	 0.0	 0.0	 0.0	 1	    1.04231	   -1.25968	 20.0	 1	    1.06000	    0.94000;
	74	 1	 0.0	 0.0	 0.0	 0.0	 1	    0.99365	   -7.71939	 345.0	 5	    1.06000	    0.94000;
	75	 1	 0.0	 0.0	 0.0	 -50.0	 1	    1.01876	    2.17598	 345.0	 8	    1.06000	    0.94000;
	76	 2	 0.0	 0.0	 0.0	 0.0	 1	    0.94976	   10.54803	 24.0	 1	    1.06000	    0.94000;
	77	 1	 26.41	 8.78	 0.0	 4.7	 1	    0.99752	  -14.99475	 161.0	 1	    1.06000	    0.94000;
	78	 1	 79.12	 0.0	 0.0	 0.0	 1	    1.00685	  -12.70372	 161.0	 5	    1.06000	    0.94000;
	79	 1	 0.0	 0.0	 0.0	 0.0	 1	    1.01486	  -10.48255	 161.0	 5	    1.06000	    0.94000;
	80	 1	 15.76	 5.25	 0.0	 2.8	 1	    0.99346	  -13.20983	 161.0	 1	    1.06000	    0.94000;
	81	 1	 50.88	 16.8	 0.0	 22.1	 1	    0.98385	  -20.99656	 69.0	 1	    1.06000	    0.94000;
	82	 1	 62.28	 20.26	 0.0	 10.4	 1	    0.98455	  -16.47807	 161.0	 1	    1.06000	    0.94000;
	83	 1	 0.0	 0.0	 0.0	 0.0	 1	    0.98661	  -15.51521	 161.0	 1	    1.06000	    0.94000;
	84	 1	 37.9	 9.49	 0.0	 2.6	 1	    0.97811	  -11.81023	 161.0	 2	    1.06000	    0.94000;
	85	 1	 40.52	 11.26	 0.0	 12.0	 1	    0.96270	  -17.07401	 161.0	 1	    1.06000	    0.94000;
	86	 1	 50.73	 13.35	 0.0	 12.0	 1	    0.95327	  -20.34953	 161.0	 2	    1.06000	    0.94000;
	87	 1	 16.91	 4.23	 0.0	 0.0	 1	    0.96109	  -18.54009	 115.0	 2	    1.06000	    0.94000;
	88	 1	 60.6	 4.44	 0.0	 0.0	 1	    0.96558	  -19.41299	 69.0	 4	    1.06000	    0.94000;
	89	 1	 0.0	 0.0	 0.0	 0.0	 1	    0.97267	  -21.50212	 115.0	 2	    1.06000	    0.94000;
	90	 1	 50.21	 16.76	 0.0	 10.0	 1	    0.94000	  -23.84355	 115.0	 2	    1.06000	    0.94000;
	91	 1	 51.24	 12.83	 0.0	 0.0	 1	    0.97016	  -10.45386	 161.0	 2	    1.06000	    0.94000;
	92	 1	 36.12	 9.05	 0.0	 0.0	 1	    0.96463	  -11.79554	 161.0	 2	    1.06000	    0.94000;
	93	 1	 103.8	 34.56	 0.0	 0.0	 1	    0.98123	   -6.00241	 161.0	 2	    1.06000	    0.94000;
	94	 1	 164.0	 6.49	 0.0	 0.0	 1	    0.99950	  -11.48725	 161.0	 5	    1.06000	    0.94000;
	95	 1	 117.2	 39.01	 0.0	 0.0	 1	    0.98112	  -10.11222	 115.0	 2	    1.06000	    0.94000;
	96	 1	 119.2	 0.0	 0.0	 0.0	 1	    0.97763	  -19.49440	 115.0	 2	    1.06000	    0.94000;
	97	 1	 22.84	 5.71	 0.0	 0.0	 1	    0.98874	  -11.71517	 115.0	 2	    1.06000	    0.94000;
	98	 1	 151.1	 50.35	 0.0	 0.0	 1	    0.99174	   -8.84996	 115.0	 2	    1.06000	    0.94000;
	99	 2	 0.0	 0.0	 0.0	 0.0	 1	    0.94000	   -3.62797	 18.0	 2	    1.06000	    0.94000;
	100	 1	 23.21	 6.9	 0.0	 3.0	 1	    0.96891	  -20.38095	 115.0	 2	    1.06000	    0.94000;
	101	 2	 0.0	 0.0	 0.0	 0.0	 1	    0.98545	  -13.93663	 14.0	 2	    1.06000	    0.94000;
	102	 1	 16.54	 4.08	 0.0	 0.0	 1	    0.96914	  -11.49783	 161.0	 2	    1.06000	    0.94000;
	103	 1	 322.0	 0.0	 0.0	 0.0	 1	    0.98767	   -9.43227	 161.0	 12	    1.06000	    0.94000;
	104	 1	 31.52	 10.46	 0.0	 5.6	 1	    0.97986	  -19.23750	 115.0	 2	    1.06000	    0.94000;
	105	 1	 24.84	 6.23	 0.0	 1.7	 1	    1.01074	  -13.13569	 115.0	 2	    1.06000	    0.94000;
	106	 1	 0.0	 0.0	 0.0	 0.0	 1	    0.97020	  -17.47574	 161.0	 4	    1.06000	    0.94000;
	107	 1	 35.41	 5.41	 0.0	 0.0	 1	    0.95648	  -18.56534	 161.0	 4	    1.06000	    0.94000;
	108	 3	 0.0	 0.0	 0.0	 0.0	 1	    0.94000	   -0.00000	 22.0	 2	    1.06000	    0.94000;
	109	 1	 0.0	 0.0	 0.0	 0.0	 1	    0.99515	   -7.54585	 345.0	 5	    1.06000	    0.94000;
	110	 1	 0.0	 0.0	 0.0	 0.0	 1	    1.02488	   -1.85984	 161.0	 3	    1.06000	    0.94000;
	111	 1	 65.41	 16.72	 0.0	 0.0	 1	    0.99910	   -6.64905	 161.0	 3	    1.06000	    0.94000;
	112	 1	 0.0	 0.0	 0.0	 -50.0	 1	    1.02634	    0.74147	 345.0	 3	    1.06000	    0.94000;
	113	 1	 32.7	 0.0	 0.0	 0.0	 1	    1.02325	   -3.36121	 161.0	 12	    1.06000	    0.94000;
	114	 2	 0.0	 0.0	 0.0	 0.0	 1	    1.00451	    4.65736	 14.0	 3	    1.06000	    0.94000;
	115	 1	 17.32	 3.34	 0.0	 0.0	 1	    1.00474	   -9.57584	 161.0	 3	    1.06000	    0.94000;
	116	 1	 56.08	 11.2	 0.0	 0.0	 1	    1.00990	  -11.07664	 161.0	 3	    1.06000	    0.94000;
	117	 1	 101.9	 20.06	 0.0	 0.0	 1	    1.00069	  -11.67085	 161.0	 3	    1.06000	    0.94000;
	118	 2	 0.0	 0.0	 0.0	 0.0	 1	    1.00548	   -7.89898	 14.0	 3	    1.06000	    0.94000;
	119	 1	 0.0	 0.0	 0.0	 0.0	 1	    0.99545	   -8.99532	 345.0	 3	    1.06000	    0.94000;
	120	 1	 0.0	 0.0	 0.0	 0.0	 1	    1.02514	    0.27461	 345.0	 8	    1.06000	    0.94000;
	121	 2	 0.0	 0.0	 0.0	 0.0	 1	    0.99617	    8.64748	 24.0	 3	    1.06000	    0.94000;
	122	 1	 47.28	 9.36	 0.0	 0.0	 1	    0.94291	  -20.79600	 161.0	 3	    1.06000	    0.94000;
	123	 1	 165.0	 0.0	 0.0	 0.0	 1	    0.94000	  -21.36602	 161.0	 12	    1.06000	    0.94000;
	124	 1	 -571.0	 90.9	 0.0	 0.0	 1	    0.98746	   -5.60802	 345.0	 12	    1.06000	    0.94000;
	125	 2	 2000.0	 0.0	 0.0	 0.0	 1	    1.03313	   -5.69263	 345.0	 12	    1.06000	    0.94000;
	126	 1	 -467.0	 0.0	 0.0	 0.0	 1	    1.01263	   -1.58257	 345.0	 12	    1.06000	    0.94000;
	127	 1	 -52.6	 0.0	 0.0	 0.0	 1	    1.02129	   -4.64094	 345.0	 12	    1.06000	    0.94000;
	128	 1	 0.0	 0.0	 0.0	 0.0	 1	    1.02210	    0.31939	 345.0	 8	    1.06000	    0.94000;
	129	 1	 0.0	 0.0	 0.0	 0.0	 1	    1.02741	    0.12742	 345.0	 8	    1.06000	    0.94000;
	130	 2	 0.0	 0.0	 0.0	 0.0	 1	    1.00012	   10.21294	 22.0	 8	    1.06000	    0.94000;
	131	 2	 0.0	 0.0	 0.0	 0.0	 1	    1.05077	    7.02686	 18.0	 8	    1.06000	    0.94000;
	132	 1	 159.0	 0.0	 0.0	 0.0	 1	    1.02769	   -2.82978	 161.0	 12	    1.06000	    0.94000;
	133	 1	 30.1	 6.02	 0.0	 0.0	 1	    1.03267	   -4.59003	 69.0	 3	    1.06000	    0.94000;
	134	 1	 17.46	 3.34	 0.0	 0.0	 1	    1.02099	   -3.25286	 161.0	 3	    1.06000	    0.94000;
	135	 1	 20.06	 4.01	 0.0	 0.0	 1	    1.02944	   -4.63424	 69.0	 3	    1.06000	    0.94000;
	136	 1	 20.06	 4.01	 0.0	 0.0	 1	    1.02267	   -4.90232	 69.0	 3	    1.06000	    0.94000;
	137	 1	 20.06	 4.01	 0.0	 0.0	 1	    1.02640	   -4.86309	 69.0	 3	    1.06000	    0.94000;
	138	 1	 0.0	 0.0	 0.0	 0.0	 1	    1.02858	   -3.66830	 69.0	 3	    1.06000	    0.94000;
	139	 1	 10.1	 2.01	 0.0	 0.0	 1	    1.02368	   -4.44915	 69.0	 3	    1.06000	    0.94000;
	140	 1	 13.58	 2.68	 0.0	 0.0	 1	    1.02588	   -4.78691	 69.0	 3	    1.06000	    0.94000;
	141	 1	 0.0	 0.0	 0.0	 0.0	 1	    0.99009	   -6.60417	 161.0	 3	    1.06000	    0.94000;
	142	 1	 27.09	 5.35	 0.0	 0.0	 1	    1.00424	  -13.82862	 69.0	 3	    1.06000	    0.94000;
	143	 1	 21.07	 4.01	 0.0	 0.0	 1	    0.98780	  -12.40331	 69.0	 3	    1.06000	    0.94000;
	144	 1	 12.37	 2.01	 0.0	 0.0	 1	    1.00823	   -8.93986	 69.0	 3	    1.06000	    0.94000;
	145	 1	 10.83	 2.21	 0.0	 0.0	 1	    1.01022	   -6.98956	 69.0	 3	    1.06000	    0.94000;
	146	 1	 21.33	 4.01	 0.0	 0.0	 1	    0.99182	  -12.91780	 69.0	 3	    1.06000	    0.94000;
	147	 1	 216.4	 42.8	 0.0	 0.0	 1	    0.99646	  -12.75761	 161.0	 3	    1.06000	    0.94000;
	148	 1	 120.0	 24.0	 0.0	 0.0	 1	    0.99884	  -13.87231	 69.0	 3	    1.06000	    0.94000;
	149	 1	 0.0	 0.0	 0.0	 0.0	 1	    1.02935	   -1.46155	 161.0	 1	    1.06000	    0.94000;
	150	 1	 4.8	 1.6	 0.0	 0.0	 1	    1.02667	   -2.05668	 161.0	 1	    1.06000	    0.94000;
	151	 1	 24.0	 8.0	 0.0	 0.0	 1	    1.01479	   -3.93103	 161.0	 1	    1.06000	    0.94000;
	152	 1	 6.0	 0.0	 0.0	 0.0	 1	    1.02802	   -2.44610	 161.0	 12	    1.06000	    0.94000;
	153	 1	 4.0	 1.6	 0.0	 0.0	 1	    1.02276	   -3.51386	 69.0	 1	    1.06000	    0.94000;
	154	 1	 28.0	 9.6	 0.0	 6.0	 1	    0.98147	   -9.15677	 69.0	 1	    1.06000	    0.94000;
	155	 1	 12.0	 4.0	 0.0	 0.0	 1	    0.99165	   -7.51267	 69.0	 1	    1.06000	    0.94000;
	156	 1	 8.0	 2.4	 0.0	 0.0	 1	    0.98503	   -8.81542	 69.0	 1	    1.06000	    0.94000;
	157	 1	 32.0	 10.4	 0.0	 0.0	 1	    0.98734	   -9.14501	 69.0	 1	    1.06000	    0.94000;
	158	 1	 16.0	 5.6	 0.0	 3.0	 1	    0.97512	  -10.26924	 69.0	 1	    1.06000	    0.94000;
	159	 1	 8.0	 2.4	 0.0	 0.0	 1	    0.97512	  -10.19837	 69.0	 1	    1.06000	    0.94000;
	160	 1	 14.4	 4.8	 0.0	 3.0	 1	    0.97786	   -9.75206	 69.0	 1	    1.06000	    0.94000;
	161	 1	 32.0	 10.4	 0.0	 0.0	 1	    1.00918	   -5.07955	 161.0	 1	    1.06000	    0.94000;
	162	 1	 20.0	 6.4	 0.0	 0.0	 1	    1.00596	   -5.76445	 161.0	 1	    1.06000	    0.94000;
];

%% generator data
%	bus	Pg	Qg	Qmax	Qmin	Vg	mBase	status	Pmax	Pmin	Pc1	Pc2	Qc1min	Qc1max	Qc2min	Qc2max	ramp_agc	ramp_10	ramp_30	ramp_q	apf
mpc.gen = [
	6	 895.486	 90.023	 400.0	 -200.0	 0.98181	 100.0	 1	 1217.0	 0.0	 0.0	 0.0	 0.0	 0.0	 0.0	 0.0	 0.0	 0.0	 0.0	 0.0	 0.0;
	73	 22.249	 267.0	 267.0	 -72.0	 1.04231	 100.0	 1	 566.0	 0.0	 0.0	 0.0	 0.0	 0.0	 0.0	 0.0	 0.0	 0.0	 0.0	 0.0	 0.0;
	76	 1229.38	 -88.012	 605.0	 -170.0	 0.94976	 100.0	 1	 1282.0	 0.0	 0.0	 0.0	 0.0	 0.0	 0.0	 0.0	 0.0	 0.0	 0.0	 0.0	 0.0;
	99	 147.672	 -9.351	 75.6	 -60.6	 0.94	 100.0	 1	 186.0	 0.0	 0.0	 0.0	 0.0	 0.0	 0.0	 0.0	 0.0	 0.0	 0.0	 0.0	 0.0;
	101	 87.898	 38.6	 38.6	 -24.4	 0.98545	 100.0	 1	 180.0	 0.0	 0.0	 0.0	 0.0	 0.0	 0.0	 0.0	 0.0	 0.0	 0.0	 0.0	 0.0;
	108	 596.311	 66.429	 576.0	 -576.0	 0.94	 100.0	 1	 1151.0	 0.0	 0.0	 0.0	 0.0	 0.0	 0.0	 0.0	 0.0	 0.0	 0.0	 0.0	 0.0;
	114	 146.325	 33.0	 33.0	 -25.0	 1.00451	 100.0	 1	 148.0	 0.0	 0.0	 0.0	 0.0	 0.0	 0.0	 0.0	 0.0	 0.0	 0.0	 0.0	 0.0;
	118	 175.997	 95.0	 95.0	 -44.0	 1.00548	 100.0	 1	 189.0	 0.0	 0.0	 0.0	 0.0	 0.0	 0.0	 0.0	 0.0	 0.0	 0.0	 0.0	 0.0;
	121	 704.982	 146.287	 250.0	 -120.0	 0.99617	 100.0	 1	 1005.0	 0.0	 0.0	 0.0	 0.0	 0.0	 0.0	 0.0	 0.0	 0.0	 0.0	 0.0	 0.0;
	125	 2241.096	 144.554	 1295.0	 -1099.0	 1.03313	 100.0	 1	 2590.0	 0.0	 0.0	 0.0	 0.0	 0.0	 0.0	 0.0	 0.0	 0.0	 0.0	 0.0	 0.0;
	130	 575.271	 56.098	 288.0	 -144.0	 1.00012	 100.0	 1	 591.0	 0.0	 0.0	 0.0	 0.0	 0.0	 0.0	 0.0	 0.0	 0.0	 0.0	 0.0	 0.0;
	131	 580.0	 290.0	 290.0	 -265.0	 1.05077	 100.0	 1	 580.0	 0.0	 0.0	 0.0	 0.0	 0.0	 0.0	 0.0	 0.0	 0.0	 0.0	 0.0	 0.0;
];

%% generator cost data
%	2	startup	shutdown	n	c(n-1)	...	c0
mpc.gencost = [
	2	 0.0	 0.0	 3	   0.000000	   0.207675	   0.000000;
	2	 0.0	 0.0	 3	   0.000000	   1.124260	   0.000000;
	2	 0.0	 0.0	 3	   0.000000	   0.245174	   0.000000;
	2	 0.0	 0.0	 3	   0.000000	   0.456083	   0.000000;
	2	 0.0	 0.0	 3	   0.000000	   1.127826	   0.000000;
	2	 0.0	 0.0	 3	   0.000000	   0.743881	   0.000000;
	2	 0.0	 0.0	 3	   0.000000	   0.656310	   0.000000;
	2	 0.0	 0.0	 3	   0.000000	   1.106559	   0.000000;
	2	 0.0	 0.0	 3	   0.000000	   0.746410	   0.000000;
	2	 0.0	 0.0	 3	   0.000000	   0.569682	   0.000000;
	2	 0.0	 0.0	 3	   0.000000	   0.914188	   0.000000;
	2	 0.0	 0.0	 3	   0.000000	   0.881792	   0.000000;
];

%% branch data
%	fbus	tbus	r	x	b	rateA	rateB	rateC	ratio	angle	status	angmin	angmax
mpc.branch = [
	1	 2	 0.0035	 0.0321	 0.5438	 613.0	 613.0	 613.0	 0.0	 0.0	 1	 -15.673393	 15.673393;
	1	 3	 0.0034	 0.0326	 0.7224	 895.0	 895.0	 895.0	 0.0	 0.0	 1	 -15.673393	 15.673393;
	1	 4	 0.0064	 0.0621	 0.987	 470.0	 470.0	 470.0	 0.0	 0.0	 1	 -15.673393	 15.673393;
	1	 5	 0.0011	 0.0119	 0.2012	 663.0	 663.0	 663.0	 0.0	 0.0	 1	 -15.673393	 15.673393;
	1	 6	 0.0	 0.0133	 0.0	 900.0	 2206.0	 2206.0	 1.0519	 0.0	 1	 -15.673393	 15.673393;
	2	 7	 0.0014	 0.0125	 0.2122	 605.0	 605.0	 605.0	 0.0	 0.0	 1	 -15.673393	 15.673393;
	2	 13	 0.0046	 0.0417	 0.7058	 610.0	 610.0	 610.0	 0.0	 0.0	 1	 -15.673393	 15.673393;
	3	 14	 0.2361	 1.0122	 0.0	 29.0	 29.0	 29.0	 0.0	 0.0	 1	 -15.673393	 15.673393;
	3	 50	 0.0389	 0.1699	 0.0	 169.0	 169.0	 169.0	 0.0	 0.0	 1	 -15.673393	 15.673393;
	3	 103	 0.1074	 1.8023	 0.0	 17.0	 17.0	 17.0	 0.0	 0.0	 1	 -15.673393	 15.673393;
	3	 123	 0.2883	 1.6719	 0.0	 18.0	 18.0	 18.0	 0.0	 0.0	 1	 -15.673393	 15.673393;
	3	 124	 0.014	 0.6483	 0.0	 46.0	 46.0	 46.0	 0.0	 0.0	 1	 -15.673393	 15.673393;
	3	 125	 0.0084	 0.1139	 0.0	 257.0	 257.0	 257.0	 0.0	 0.0	 1	 -15.673393	 15.673393;
	4	 112	 0.0059	 0.0568	 0.925	 514.0	 514.0	 514.0	 0.0	 0.0	 1	 -15.673393	 15.673393;
	4	 115	 0.0	 0.0185	 0.0	 500.0	 1586.0	 1586.0	 1.0	 0.0	 1	 -15.673393	 15.673393;
	4	 119	 0.0014	 0.0119	 0.205	 591.0	 591.0	 591.0	 0.0	 0.0	 1	 -15.673393	 15.673393;
	5	 120	 0.0022	 0.0224	 0.3792	 644.0	 644.0	 644.0	 0.0	 0.0	 1	 -15.673393	 15.673393;
	5	 129	 0.0022	 0.0268	 0.4612	 702.0	 702.0	 702.0	 0.0	 0.0	 1	 -15.673393	 15.673393;
	5	 131	 0.0	 0.0127	 0.0	 710.0	 2310.0	 2310.0	 1.0249	 0.0	 1	 -15.673393	 15.673393;
	7	 8	 0.0004	 0.0189	 0.0	 672.0	 1552.0	 1552.0	 0.9751	 0.0	 1	 -15.673393	 15.673393;
	7	 9	 0.0017	 0.0169	 0.2872	 637.0	 637.0	 637.0	 0.0	 0.0	 1	 -15.673393	 15.673393;
	8	 10	 0.4591	 1.0703	 0.0	 26.0	 26.0	 26.0	 0.0	 0.0	 1	 -15.673393	 15.673393;
	8	 12	 0.0106	 0.0574	 0.0	 159.0	 159.0	 159.0	 0.0	 0.0	 1	 -15.673393	 15.673393;
	8	 13	 0.1274	 0.4784	 0.0	 60.0	 60.0	 60.0	 0.0	 0.0	 1	 -15.673393	 15.673393;
	8	 14	 0.0473	 0.3956	 0.0	 74.0	 74.0	 74.0	 0.0	 0.0	 1	 -15.673393	 15.673393;
	8	 15	 0.5035	 1.7433	 0.0	 17.0	 17.0	 17.0	 0.0	 0.0	 1	 -15.673393	 15.673393;
	8	 132	 0.0252	 0.288	 0.0	 102.0	 102.0	 102.0	 0.0	 0.0	 1	 -15.673393	 15.673393;
	9	 75	 0.0013	 0.015	 0.2682	 684.0	 684.0	 684.0	 0.0	 0.0	 1	 -15.673393	 15.673393;
	10	 11	 0.0051	 0.037	 0.0716	 366.0	 366.0	 366.0	 0.0	 0.0	 1	 -15.673393	 15.673393;
	10	 13	 0.1299	 0.622	 0.0	 47.0	 47.0	 47.0	 0.0	 0.0	 1	 -15.673393	 15.673393;
	10	 15	 0.1275	 0.7033	 0.0	 42.0	 42.0	 42.0	 0.0	 0.0	 1	 -15.673393	 15.673393;
	10	 60	 0.2525	 1.2242	 0.0	 24.0	 24.0	 24.0	 0.0	 0.0	 1	 -15.673393	 15.673393;
	11	 15	 0.0285	 0.1793	 0.3484	 162.0	 162.0	 162.0	 0.0	 0.0	 1	 -15.673393	 15.673393;
	11	 46	 0.0142	 0.1225	 0.1876	 238.0	 238.0	 238.0	 0.0	 0.0	 1	 -15.673393	 15.673393;
	11	 58	 0.017	 0.107	 0.2074	 271.0	 271.0	 271.0	 0.0	 0.0	 1	 -15.673393	 15.673393;
	11	 59	 0.0071	 0.0471	 0.0852	 350.0	 350.0	 350.0	 0.0	 0.0	 1	 -15.673393	 15.673393;
	12	 2	 0.0008	 0.0377	 0.0	 336.0	 778.0	 778.0	 1.0252	 0.0	 1	 -15.673393	 15.673393;
	12	 13	 0.1038	 0.3137	 0.0	 89.0	 89.0	 89.0	 0.0	 0.0	 1	 -15.673393	 15.673393;
	12	 14	 0.1598	 0.6415	 0.0	 45.0	 45.0	 45.0	 0.0	 0.0	 1	 -15.673393	 15.673393;
	12	 132	 0.4486	 1.5773	 0.0	 18.0	 18.0	 18.0	 0.0	 0.0	 1	 -15.673393	 15.673393;
	13	 15	 0.044	 0.3227	 0.0	 91.0	 91.0	 91.0	 0.0	 0.0	 1	 -15.673393	 15.673393;
	13	 62	 0.0098	 0.1221	 0.0	 240.0	 240.0	 240.0	 0.0	 0.0	 1	 -15.673393	 15.673393;
	14	 72	 0.0107	 0.0828	 0.0	 264.0	 264.0	 264.0	 0.0	 0.0	 1	 -15.673393	 15.673393;
	14	 113	 0.0063	 0.0382	 0.0	 235.0	 235.0	 235.0	 0.0	 0.0	 1	 -15.673393	 15.673393;
	14	 132	 0.0057	 0.0374	 0.0	 244.0	 244.0	 244.0	 0.0	 0.0	 1	 -15.673393	 15.673393;
	15	 58	 0.0115	 0.0732	 0.142	 344.0	 344.0	 344.0	 0.0	 0.0	 1	 -15.673393	 15.673393;
	15	 60	 0.3907	 1.6753	 0.0	 18.0	 18.0	 18.0	 0.0	 0.0	 1	 -15.673393	 15.673393;
	15	 62	 0.0084	 0.0588	 0.0	 359.0	 359.0	 359.0	 0.0	 0.0	 1	 -15.673393	 15.673393;
	15	 63	 0.1704	 1.4555	 0.0	 21.0	 21.0	 21.0	 0.0	 0.0	 1	 -15.673393	 15.673393;
	16	 17	 0.6017	 1.4373	 0.0	 19.0	 19.0	 19.0	 0.0	 0.0	 1	 -15.673393	 15.673393;
	16	 18	 0.0297	 0.107	 0.0546	 184.0	 184.0	 184.0	 0.0	 0.0	 1	 -15.673393	 15.673393;
	16	 27	 0.1574	 0.8871	 0.0	 33.0	 33.0	 33.0	 0.0	 0.0	 1	 -15.673393	 15.673393;
	16	 126	 0.1053	 0.5132	 0.0	 56.0	 56.0	 56.0	 0.0	 0.0	 1	 -15.673393	 15.673393;
	16	 127	 0.0958	 0.5276	 0.0	 55.0	 55.0	 55.0	 0.0	 0.0	 1	 -15.673393	 15.673393;
	17	 18	 0.0213	 0.1013	 0.0642	 209.0	 209.0	 209.0	 0.0	 0.0	 1	 -15.673393	 15.673393;
	17	 19	 0.2314	 0.7678	 0.0	 37.0	 37.0	 37.0	 0.0	 0.0	 1	 -15.673393	 15.673393;
	17	 21	 0.0471	 0.2665	 0.0	 109.0	 109.0	 109.0	 0.0	 0.0	 1	 -15.673393	 15.673393;
	17	 127	 0.0287	 0.2637	 0.0	 111.0	 111.0	 111.0	 0.0	 0.0	 1	 -15.673393	 15.673393;
	18	 30	 0.0207	 0.1088	 0.052	 220.0	 220.0	 220.0	 0.0	 0.0	 1	 -15.673393	 15.673393;
	18	 32	 0.0234	 0.122	 0.0582	 219.0	 219.0	 219.0	 0.0	 0.0	 1	 -15.673393	 15.673393;
	18	 37	 0.0	 0.0456	 0.0	 225.0	 644.0	 644.0	 1.1193	 0.0	 1	 -15.673393	 15.673393;
	19	 21	 0.3867	 1.9005	 0.0	 16.0	 16.0	 16.0	 0.0	 0.0	 1	 -15.673393	 15.673393;
	19	 38	 0.0239	 0.125	 0.0596	 219.0	 219.0	 219.0	 0.0	 0.0	 1	 -15.673393	 15.673393;
	19	 43	 0.0603	 0.2572	 0.0	 112.0	 112.0	 112.0	 0.0	 0.0	 1	 -15.673393	 15.673393;
	19	 127	 0.1074	 0.6809	 0.0	 43.0	 43.0	 43.0	 0.0	 0.0	 1	 -15.673393	 15.673393;
	20	 53	 0.0	 0.114	 0.0	 75.0	 258.0	 258.0	 1.0	 0.0	 1	 -15.673393	 15.673393;
	20	 157	 0.0113	 0.0279	 0.0004	 44.0	 66.0	 66.0	 0.0	 0.0	 1	 -15.673393	 15.673393;
	21	 22	 0.0312	 0.1629	 0.0778	 177.0	 177.0	 177.0	 0.0	 0.0	 1	 -15.673393	 15.673393;
	21	 127	 0.0105	 0.6414	 0.0	 46.0	 46.0	 46.0	 0.0	 0.0	 1	 -15.673393	 15.673393;
	22	 38	 0.014	 0.054	 0.025	 190.0	 190.0	 190.0	 0.0	 0.0	 1	 -15.673393	 15.673393;
	22	 39	 0.0	 0.0493	 0.0	 225.0	 595.0	 595.0	 1.1081	 0.0	 1	 -15.673393	 15.673393;
	22	 40	 0.0188	 0.0717	 0.0328	 189.0	 189.0	 189.0	 0.0	 0.0	 1	 -15.673393	 15.673393;
	22	 41	 0.0172	 0.085	 0.0404	 213.0	 213.0	 213.0	 0.0	 0.0	 1	 -15.673393	 15.673393;
	23	 24	 0.0174	 0.0511	 0.023	 167.0	 167.0	 167.0	 0.0	 0.0	 1	 -15.673393	 15.673393;
	23	 60	 0.066	 0.3093	 0.0	 93.0	 93.0	 93.0	 0.0	 0.0	 1	 -15.673393	 15.673393;
	24	 25	 0.0	 0.034	 0.0	 225.0	 863.0	 863.0	 1.0217	 0.0	 1	 -15.673393	 15.673393;
	24	 28	 0.0249	 0.0725	 0.0202	 166.0	 166.0	 166.0	 0.0	 0.0	 1	 -15.673393	 15.673393;
	24	 45	 0.0137	 0.0725	 0.034	 220.0	 220.0	 220.0	 0.0	 0.0	 1	 -15.673393	 15.673393;
	25	 26	 0.0059	 0.0583	 0.9302	 501.0	 501.0	 501.0	 0.0	 0.0	 1	 -15.673393	 15.673393;
	25	 27	 0.0044	 0.041	 0.8384	 618.0	 618.0	 618.0	 0.0	 0.0	 1	 -15.673393	 15.673393;
	26	 74	 0.0063	 0.0607	 0.93	 481.0	 481.0	 481.0	 0.0	 0.0	 1	 -15.673393	 15.673393;
	26	 75	 0.003	 0.0322	 0.5038	 661.0	 661.0	 661.0	 0.0	 0.0	 1	 -15.673393	 15.673393;
	26	 76	 0.0	 0.0082	 0.0	 1250.0	 3578.0	 3578.0	 1.04	 0.0	 1	 -15.673393	 15.673393;
	27	 31	 0.0101	 0.1273	 0.0	 230.0	 230.0	 230.0	 0.0	 0.0	 1	 -15.673393	 15.673393;
	27	 62	 0.0173	 0.581	 0.0	 51.0	 51.0	 51.0	 0.0	 0.0	 1	 -15.673393	 15.673393;
	27	 65	 0.0105	 0.2764	 0.0	 107.0	 107.0	 107.0	 0.0	 0.0	 1	 -15.673393	 15.673393;
	27	 125	 0.035	 1.6845	 0.0	 18.0	 18.0	 18.0	 0.0	 0.0	 1	 -15.673393	 15.673393;
	27	 126	 0.0022	 0.0225	 0.0	 646.0	 646.0	 646.0	 0.0	 0.0	 1	 -15.673393	 15.673393;
	27	 127	 0.1506	 1.4355	 0.0	 21.0	 21.0	 21.0	 0.0	 0.0	 1	 -15.673393	 15.673393;
	28	 29	 0.024	 0.0965	 0.0444	 193.0	 193.0	 193.0	 0.0	 0.0	 1	 -15.673393	 15.673393;
	29	 30	 0.038	 0.15	 0.0696	 177.0	 190.0	 190.0	 0.0	 0.0	 1	 -15.673393	 15.673393;
	29	 31	 0.0206	 0.0833	 0.0384	 194.0	 194.0	 194.0	 0.0	 0.0	 1	 -15.673393	 15.673393;
	30	 32	 0.0249	 0.1005	 0.0458	 194.0	 194.0	 194.0	 0.0	 0.0	 1	 -15.673393	 15.673393;
	32	 33	 0.0114	 0.0448	 0.0208	 191.0	 191.0	 191.0	 0.0	 0.0	 1	 -15.673393	 15.673393;
	33	 34	 0.028	 0.114	 0.052	 180.0	 195.0	 195.0	 0.0	 0.0	 1	 -15.673393	 15.673393;
	33	 35	 0.0216	 0.107	 0.051	 214.0	 214.0	 214.0	 0.0	 0.0	 1	 -15.673393	 15.673393;
	33	 36	 0.0102	 0.0536	 0.0254	 220.0	 220.0	 220.0	 0.0	 0.0	 1	 -15.673393	 15.673393;
	34	 40	 0.0397	 0.1517	 0.069	 188.0	 188.0	 188.0	 0.0	 0.0	 1	 -15.673393	 15.673393;
	34	 77	 0.0235	 0.0896	 0.0408	 189.0	 189.0	 189.0	 0.0	 0.0	 1	 -15.673393	 15.673393;
	35	 40	 0.0271	 0.1341	 0.0638	 179.0	 213.0	 213.0	 0.0	 0.0	 1	 -15.673393	 15.673393;
	36	 67	 0.0176	 0.0924	 0.044	 220.0	 220.0	 220.0	 0.0	 0.0	 1	 -15.673393	 15.673393;
	37	 39	 0.0039	 0.0379	 0.67	 630.0	 630.0	 630.0	 0.0	 0.0	 1	 -15.673393	 15.673393;
	37	 126	 0.004	 0.0381	 0.67	 624.0	 624.0	 624.0	 0.0	 0.0	 1	 -15.673393	 15.673393;
	37	 127	 0.004	 0.0403	 0.6832	 641.0	 641.0	 641.0	 0.0	 0.0	 1	 -15.673393	 15.673393;
	39	 42	 0.002	 0.0186	 0.32	 617.0	 617.0	 617.0	 0.0	 0.0	 1	 -15.673393	 15.673393;
	40	 81	 0.03	 0.345	 0.0038	 81.0	 85.0	 85.0	 0.0	 0.0	 1	 -15.673393	 15.673393;
	40	 82	 0.004	 0.019	 0.0108	 209.0	 209.0	 209.0	 0.0	 0.0	 1	 -15.673393	 15.673393;
	41	 81	 0.037	 0.372	 0.0058	 79.0	 79.0	 79.0	 0.0	 0.0	 1	 -15.673393	 15.673393;
	41	 83	 0.0052	 0.0256	 0.0124	 213.0	 213.0	 213.0	 0.0	 0.0	 1	 -15.673393	 15.673393;
	41	 84	 0.0057	 0.058	 0.0292	 301.0	 301.0	 301.0	 0.0	 0.0	 1	 -15.673393	 15.673393;
	42	 109	 0.0019	 0.0196	 0.333	 648.0	 648.0	 648.0	 0.0	 0.0	 1	 -15.673393	 15.673393;
	43	 44	 0.0188	 0.0751	 0.0348	 193.0	 193.0	 193.0	 0.0	 0.0	 1	 -15.673393	 15.673393;
	43	 103	 0.0324	 0.1702	 0.0	 170.0	 170.0	 170.0	 0.0	 0.0	 1	 -15.673393	 15.673393;
	43	 124	 0.0293	 0.1766	 0.0	 164.0	 164.0	 164.0	 0.0	 0.0	 1	 -15.673393	 15.673393;
	43	 125	 0.1449	 0.6509	 0.0	 44.0	 44.0	 44.0	 0.0	 0.0	 1	 -15.673393	 15.673393;
	44	 102	 0.013	 0.05	 0.0236	 180.0	 189.0	 189.0	 0.0	 0.0	 1	 -15.673393	 15.673393;
	44	 103	 0.0127	 0.051	 0.0244	 180.0	 193.0	 193.0	 0.0	 0.0	 1	 -15.673393	 15.673393;
	45	 54	 0.0108	 0.057	 0.0272	 220.0	 220.0	 220.0	 0.0	 0.0	 1	 -15.673393	 15.673393;
	46	 47	 0.031	 0.1378	 0.0622	 177.0	 203.0	 203.0	 0.0	 0.0	 1	 -15.673393	 15.673393;
	47	 48	 0.0251	 0.1114	 0.0502	 177.0	 203.0	 203.0	 0.0	 0.0	 1	 -15.673393	 15.673393;
	47	 49	 0.003	 0.012	 0.0054	 193.0	 193.0	 193.0	 0.0	 0.0	 1	 -15.673393	 15.673393;
	48	 50	 0.0336	 0.166	 0.078	 174.0	 174.0	 174.0	 0.0	 0.0	 1	 -15.673393	 15.673393;
	48	 51	 0.042	 0.13	 0.057	 171.0	 171.0	 171.0	 0.0	 0.0	 1	 -15.673393	 15.673393;
	48	 52	 0.054	 0.168	 0.074	 167.0	 167.0	 167.0	 0.0	 0.0	 1	 -15.673393	 15.673393;
	49	 87	 0.014	 0.068	 0.0266	 423.0	 423.0	 423.0	 0.0	 0.0	 1	 -15.673393	 15.673393;
	50	 51	 0.03	 0.09	 0.041	 168.0	 168.0	 168.0	 0.0	 0.0	 1	 -15.673393	 15.673393;
	50	 123	 0.4071	 1.8543	 0.0	 16.0	 16.0	 16.0	 0.0	 0.0	 1	 -15.673393	 15.673393;
	50	 125	 0.1337	 0.6031	 0.0	 48.0	 48.0	 48.0	 0.0	 0.0	 1	 -15.673393	 15.673393;
	51	 141	 0.0323	 0.1	 0.0442	 171.0	 171.0	 171.0	 0.0	 0.0	 1	 -15.673393	 15.673393;
	52	 79	 0.0623	 0.2126	 0.094	 133.0	 133.0	 133.0	 0.0	 0.0	 1	 -15.673393	 15.673393;
	52	 106	 0.0231	 0.0717	 0.0314	 171.0	 171.0	 171.0	 0.0	 0.0	 1	 -15.673393	 15.673393;
	52	 116	 0.006	 0.0487	 0.0256	 270.0	 270.0	 270.0	 0.0	 0.0	 1	 -15.673393	 15.673393;
	52	 117	 0.0117	 0.0493	 0.023	 198.0	 198.0	 198.0	 0.0	 0.0	 1	 -15.673393	 15.673393;
	52	 118	 0.0	 0.052	 0.0	 200.0	 565.0	 565.0	 1.0429	 0.0	 1	 -15.673393	 15.673393;
	53	 11	 0.0005	 0.02	 0.0	 375.0	 1467.0	 1467.0	 1.0	 0.0	 1	 -15.673393	 15.673393;
	53	 54	 0.0275	 0.1961	 0.0956	 149.0	 149.0	 149.0	 0.0	 0.0	 1	 -15.673393	 15.673393;
	53	 55	 0.0005	 0.0026	 0.0022	 219.0	 219.0	 219.0	 0.0	 0.0	 1	 -15.673393	 15.673393;
	54	 56	 0.0174	 0.091	 0.043	 219.0	 219.0	 219.0	 0.0	 0.0	 1	 -15.673393	 15.673393;
	54	 57	 0.025	 0.1237	 0.0588	 213.0	 213.0	 213.0	 0.0	 0.0	 1	 -15.673393	 15.673393;
	55	 57	 0.0462	 0.1763	 0.0802	 161.0	 161.0	 161.0	 0.0	 0.0	 1	 -15.673393	 15.673393;
	55	 149	 0.0153	 0.0671	 0.0312	 202.0	 202.0	 202.0	 0.0	 0.0	 1	 -15.673393	 15.673393;
	55	 162	 0.004	 0.0189	 0.0098	 209.0	 209.0	 209.0	 0.0	 0.0	 1	 -15.673393	 15.673393;
	56	 67	 0.017	 0.0894	 0.0424	 220.0	 220.0	 220.0	 0.0	 0.0	 1	 -15.673393	 15.673393;
	57	 80	 0.0272	 0.1037	 0.0472	 180.0	 189.0	 189.0	 0.0	 0.0	 1	 -15.673393	 15.673393;
	58	 61	 0.0133	 0.1018	 0.1842	 276.0	 286.0	 286.0	 0.0	 0.0	 1	 -15.673393	 15.673393;
	59	 61	 0.0106	 0.0706	 0.121	 351.0	 351.0	 351.0	 0.0	 0.0	 1	 -15.673393	 15.673393;
	60	 61	 0.0027	 0.0653	 -0.0022	 100.0	 449.0	 449.0	 1.0252	 0.0	 1	 -15.673393	 15.673393;
	60	 61	 0.002	 0.0393	 0.0	 200.0	 746.0	 746.0	 1.0252	 0.0	 1	 -15.673393	 15.673393;
	60	 62	 0.3674	 0.964	 0.0	 29.0	 29.0	 29.0	 0.0	 0.0	 1	 -15.673393	 15.673393;
	60	 65	 0.1041	 0.4144	 0.0	 69.0	 69.0	 69.0	 0.0	 0.0	 1	 -15.673393	 15.673393;
	60	 126	 0.5367	 1.8295	 0.0	 16.0	 16.0	 16.0	 0.0	 0.0	 1	 -15.673393	 15.673393;
	61	 62	 0.0296	 0.2275	 0.3996	 128.0	 128.0	 128.0	 0.0	 0.0	 1	 -15.673393	 15.673393;
	61	 63	 0.0043	 0.0422	 0.0764	 345.0	 422.0	 422.0	 0.0	 0.0	 1	 -15.673393	 15.673393;
	62	 63	 0.0158	 0.1702	 0.0	 172.0	 172.0	 172.0	 0.0	 0.0	 1	 -15.673393	 15.673393;
	62	 65	 0.004	 0.074	 0.0	 396.0	 396.0	 396.0	 0.0	 0.0	 1	 -15.673393	 15.673393;
	62	 126	 0.0044	 0.2969	 0.0	 99.0	 99.0	 99.0	 0.0	 0.0	 1	 -15.673393	 15.673393;
	63	 65	 0.2409	 1.96	 0.0	 15.0	 15.0	 15.0	 0.0	 0.0	 1	 -15.673393	 15.673393;
	64	 65	 0.005	 0.0571	 0.9098	 512.0	 512.0	 512.0	 0.0	 0.0	 1	 -15.673393	 15.673393;
	64	 66	 0.0033	 0.0381	 0.6066	 684.0	 684.0	 684.0	 0.0	 0.0	 1	 -15.673393	 15.673393;
	65	 126	 0.0031	 0.1536	 0.0	 191.0	 191.0	 191.0	 0.0	 0.0	 1	 -15.673393	 15.673393;
	66	 11	 0.0	 0.0118	 0.0	 500.0	 2486.0	 2486.0	 1.0	 0.0	 1	 -15.673393	 15.673393;
	67	 68	 0.0193	 0.1013	 0.0482	 220.0	 220.0	 220.0	 0.0	 0.0	 1	 -15.673393	 15.673393;
	68	 69	 0.0068	 0.0353	 0.0168	 218.0	 218.0	 218.0	 0.0	 0.0	 1	 -15.673393	 15.673393;
	69	 77	 0.0098	 0.0374	 0.017	 189.0	 189.0	 189.0	 0.0	 0.0	 1	 -15.673393	 15.673393;
	69	 78	 0.0114	 0.0434	 0.0196	 180.0	 188.0	 188.0	 0.0	 0.0	 1	 -15.673393	 15.673393;
	69	 79	 0.0052	 0.0433	 0.022	 273.0	 273.0	 273.0	 0.0	 0.0	 1	 -15.673393	 15.673393;
	70	 73	 0.0	 0.0197	 0.0	 495.0	 1489.0	 1489.0	 1.0398	 0.0	 1	 -15.673393	 15.673393;
	70	 149	 0.0002	 0.0018	 0.001	 284.0	 284.0	 284.0	 0.0	 0.0	 1	 -15.673393	 15.673393;
	70	 149	 0.0002	 0.0018	 0.001	 284.0	 284.0	 284.0	 0.0	 0.0	 1	 -15.673393	 15.673393;
	71	 85	 0.0304	 0.1506	 0.0716	 191.0	 191.0	 191.0	 0.0	 0.0	 1	 -15.673393	 15.673393;
	71	 150	 0.0196	 0.097	 0.0462	 213.0	 213.0	 213.0	 0.0	 0.0	 1	 -15.673393	 15.673393;
	72	 113	 0.0022	 0.013	 0.0	 232.0	 232.0	 232.0	 0.0	 0.0	 1	 -15.673393	 15.673393;
	72	 132	 0.0028	 0.0168	 0.0	 234.0	 234.0	 234.0	 0.0	 0.0	 1	 -15.673393	 15.673393;
	72	 152	 0.0385	 0.18	 0.0	 160.0	 160.0	 160.0	 0.0	 0.0	 1	 -15.673393	 15.673393;
	74	 119	 0.0031	 0.031	 0.4822	 639.0	 639.0	 639.0	 0.0	 0.0	 1	 -15.673393	 15.673393;
	75	 128	 0.0008	 0.0087	 0.166	 665.0	 665.0	 665.0	 0.0	 0.0	 1	 -15.673393	 15.673393;
	75	 130	 0.0004	 0.0242	 0.0	 578.0	 1212.0	 1212.0	 1.0249	 0.0	 1	 -15.673393	 15.673393;
	78	 79	 0.0051	 0.0336	 0.0182	 245.0	 245.0	 245.0	 0.0	 0.0	 1	 -15.673393	 15.673393;
	78	 80	 0.0244	 0.093	 0.0422	 180.0	 189.0	 189.0	 0.0	 0.0	 1	 -15.673393	 15.673393;
	79	 74	 0.0	 0.018	 0.0	 500.0	 1630.0	 1630.0	 1.0248	 0.0	 1	 -15.673393	 15.673393;
	82	 83	 0.0053	 0.0249	 0.013	 208.0	 208.0	 208.0	 0.0	 0.0	 1	 -15.673393	 15.673393;
	84	 93	 0.0125	 0.0826	 0.0414	 245.0	 245.0	 245.0	 0.0	 0.0	 1	 -15.673393	 15.673393;
	85	 86	 0.0211	 0.1046	 0.0498	 214.0	 214.0	 214.0	 0.0	 0.0	 1	 -15.673393	 15.673393;
	86	 87	 0.028	 0.112	 0.0538	 255.0	 255.0	 255.0	 0.0	 0.0	 1	 -15.673393	 15.673393;
	86	 88	 0.044	 0.228	 0.109	 127.0	 127.0	 127.0	 0.0	 0.0	 1	 -15.673393	 15.673393;
	88	 96	 0.074	 0.25	 0.0142	 48.0	 113.0	 113.0	 0.0	 0.0	 1	 -15.673393	 15.673393;
	88	 106	 0.0079	 0.0468	 0.0232	 173.0	 619.0	 619.0	 0.0	 0.0	 1	 -15.673393	 15.673393;
	89	 86	 0.0	 0.057	 0.0	 90.0	 515.0	 515.0	 1.0252	 0.0	 1	 -15.673393	 15.673393;
	89	 90	 0.069	 0.134	 0.014	 69.0	 98.0	 98.0	 0.0	 0.0	 1	 -15.673393	 15.673393;
	90	 96	 0.1837	 0.359	 0.037	 73.0	 73.0	 73.0	 0.0	 0.0	 1	 -15.673393	 15.673393;
	91	 92	 0.0156	 0.0819	 0.0376	 220.0	 220.0	 220.0	 0.0	 0.0	 1	 -15.673393	 15.673393;
	91	 93	 0.0143	 0.0895	 0.045	 239.0	 239.0	 239.0	 0.0	 0.0	 1	 -15.673393	 15.673393;
	91	 94	 0.0145	 0.0957	 0.048	 245.0	 245.0	 245.0	 0.0	 0.0	 1	 -15.673393	 15.673393;
	92	 102	 0.015	 0.061	 0.0292	 194.0	 194.0	 194.0	 0.0	 0.0	 1	 -15.673393	 15.673393;
	93	 42	 0.0	 0.026	 0.0	 400.0	 1129.0	 1129.0	 1.0248	 0.0	 1	 -15.673393	 15.673393;
	93	 108	 0.0	 0.0154	 0.0	 600.0	 1905.0	 1905.0	 1.0503	 0.0	 1	 -15.673393	 15.673393;
	94	 103	 0.0227	 0.1333	 0.066	 217.0	 217.0	 217.0	 0.0	 0.0	 1	 -15.673393	 15.673393;
	94	 107	 0.0613	 0.1891	 0.0836	 148.0	 148.0	 148.0	 0.0	 0.0	 1	 -15.673393	 15.673393;
	94	 109	 0.0	 0.035	 0.0	 300.0	 839.0	 839.0	 1.0248	 0.0	 1	 -15.673393	 15.673393;
	95	 91	 0.0054	 0.0458	 -0.0036	 250.0	 637.0	 637.0	 1.02	 0.0	 1	 -15.673393	 15.673393;
	95	 96	 0.087	 0.212	 0.086	 109.0	 109.0	 109.0	 0.0	 0.0	 1	 -15.673393	 15.673393;
	95	 97	 0.1289	 0.2809	 0.0334	 58.0	 95.0	 95.0	 0.0	 0.0	 1	 -15.673393	 15.673393;
	95	 98	 0.0071	 0.043	 0.0224	 168.0	 168.0	 168.0	 0.0	 0.0	 1	 -15.673393	 15.673393;
	95	 99	 0.0	 0.0685	 0.0	 150.0	 429.0	 429.0	 1.0296	 0.0	 1	 -15.673393	 15.673393;
	96	 100	 0.069	 0.161	 0.0186	 69.0	 107.0	 107.0	 0.0	 0.0	 1	 -15.673393	 15.673393;
	96	 101	 0.0	 0.1031	 0.0	 96.0	 285.0	 285.0	 1.0296	 0.0	 1	 -15.673393	 15.673393;
	97	 44	 0.0051	 0.1007	 -0.0025	 84.0	 291.0	 291.0	 1.0252	 0.0	 1	 -15.673393	 15.673393;
	98	 93	 0.0006	 0.0214	 -0.0341	 504.0	 1371.0	 1371.0	 1.0252	 0.0	 1	 -15.673393	 15.673393;
	98	 105	 0.1485	 0.293	 0.031	 69.0	 90.0	 90.0	 0.0	 0.0	 1	 -15.673393	 15.673393;
	100	 104	 0.062	 0.145	 0.0166	 69.0	 107.0	 107.0	 0.0	 0.0	 1	 -15.673393	 15.673393;
	103	 123	 0.182	 0.751	 0.0	 38.0	 38.0	 38.0	 0.0	 0.0	 1	 -15.673393	 15.673393;
	103	 124	 0.0002	 0.0167	 0.0	 1757.0	 1757.0	 1757.0	 0.0	 0.0	 1	 -15.673393	 15.673393;
	103	 125	 0.0279	 0.1972	 0.0	 148.0	 148.0	 148.0	 0.0	 0.0	 1	 -15.673393	 15.673393;
	104	 34	 0.008	 0.0637	 -0.0033	 106.0	 457.0	 457.0	 1.0	 0.0	 1	 -15.673393	 15.673393;
	105	 38	 0.0	 0.116	 0.0	 45.0	 253.0	 253.0	 1.0252	 0.0	 1	 -15.673393	 15.673393;
	106	 107	 0.0196	 0.0611	 0.0268	 171.0	 171.0	 171.0	 0.0	 0.0	 1	 -15.673393	 15.673393;
	107	 122	 0.013	 0.0621	 0.0296	 210.0	 210.0	 210.0	 0.0	 0.0	 1	 -15.673393	 15.673393;
	109	 119	 0.006	 0.0577	 0.929	 506.0	 506.0	 506.0	 0.0	 0.0	 1	 -15.673393	 15.673393;
	109	 124	 0.002	 0.0222	 0.3782	 671.0	 671.0	 671.0	 0.0	 0.0	 1	 -15.673393	 15.673393;
	109	 125	 0.007	 0.062	 1.0	 471.0	 471.0	 471.0	 0.0	 0.0	 1	 -15.673393	 15.673393;
	110	 111	 0.023	 0.099	 0.046	 180.0	 200.0	 200.0	 0.0	 0.0	 1	 -15.673393	 15.673393;
	110	 112	 0.0	 0.0185	 0.0	 500.0	 1586.0	 1586.0	 1.0	 0.0	 1	 -15.673393	 15.673393;
	110	 114	 0.0	 0.0768	 0.0	 150.0	 382.0	 382.0	 1.0398	 0.0	 1	 -15.673393	 15.673393;
	110	 134	 0.0032	 0.0256	 0.0134	 268.0	 268.0	 268.0	 0.0	 0.0	 1	 -15.673393	 15.673393;
	110	 141	 0.021	 0.0649	 0.0288	 171.0	 171.0	 171.0	 0.0	 0.0	 1	 -15.673393	 15.673393;
	111	 115	 0.0527	 0.2215	 0.103	 129.0	 129.0	 129.0	 0.0	 0.0	 1	 -15.673393	 15.673393;
	112	 120	 0.0005	 0.0044	 0.072	 601.0	 601.0	 601.0	 0.0	 0.0	 1	 -15.673393	 15.673393;
	112	 121	 0.0	 0.019	 0.0	 720.0	 1544.0	 1544.0	 1.0499	 0.0	 1	 -15.673393	 15.673393;
	113	 132	 0.0459	 0.2911	 0.0	 100.0	 100.0	 100.0	 0.0	 0.0	 1	 -15.673393	 15.673393;
	113	 134	 0.0008	 0.0072	 0.0038	 284.0	 284.0	 284.0	 0.0	 0.0	 1	 -15.673393	 15.673393;
	115	 117	 0.0019	 0.0154	 0.033	 270.0	 270.0	 270.0	 0.0	 0.0	 1	 -15.673393	 15.673393;
	116	 117	 0.0048	 0.0391	 0.0214	 271.0	 271.0	 271.0	 0.0	 0.0	 1	 -15.673393	 15.673393;
	116	 119	 0.0	 0.009	 0.0	 1000.0	 3260.0	 3260.0	 1.0248	 0.0	 1	 -15.673393	 15.673393;
	116	 147	 0.0035	 0.0286	 0.0156	 271.0	 271.0	 271.0	 0.0	 0.0	 1	 -15.673393	 15.673393;
	117	 147	 0.0022	 0.0175	 0.01	 268.0	 268.0	 268.0	 0.0	 0.0	 1	 -15.673393	 15.673393;
	120	 14	 0.0003	 0.0188	 0.0	 500.0	 1561.0	 1561.0	 0.9751	 0.0	 1	 -15.673393	 15.673393;
	120	 128	 0.0004	 0.0051	 0.1	 717.0	 717.0	 717.0	 0.0	 0.0	 1	 -15.673393	 15.673393;
	120	 129	 0.0003	 0.0038	 0.0652	 715.0	 715.0	 715.0	 0.0	 0.0	 1	 -15.673393	 15.673393;
	122	 123	 0.0175	 0.0835	 0.0398	 210.0	 210.0	 210.0	 0.0	 0.0	 1	 -15.673393	 15.673393;
	123	 125	 0.0423	 0.2441	 0.0	 119.0	 119.0	 119.0	 0.0	 0.0	 1	 -15.673393	 15.673393;
	124	 125	 0.0113	 0.1585	 0.0	 185.0	 185.0	 185.0	 0.0	 0.0	 1	 -15.673393	 15.673393;
	124	 126	 0.0577	 0.8256	 0.0	 36.0	 36.0	 36.0	 0.0	 0.0	 1	 -15.673393	 15.673393;
	125	 126	 0.0201	 0.5915	 0.0	 50.0	 50.0	 50.0	 0.0	 0.0	 1	 -15.673393	 15.673393;
	126	 127	 0.0877	 0.7049	 0.0	 42.0	 42.0	 42.0	 0.0	 0.0	 1	 -15.673393	 15.673393;
	128	 72	 0.0004	 0.018	 0.0	 500.0	 1630.0	 1630.0	 1.0	 0.0	 1	 -15.673393	 15.673393;
	129	 132	 0.0004	 0.0198	 0.0	 500.0	 1482.0	 1482.0	 1.0	 0.0	 1	 -15.673393	 15.673393;
	133	 134	 0.0	 0.041	 0.0	 160.0	 716.0	 716.0	 1.0249	 0.0	 1	 -15.673393	 15.673393;
	133	 135	 0.0109	 0.0259	 0.0004	 44.0	 65.0	 65.0	 0.0	 0.0	 1	 -15.673393	 15.673393;
	133	 136	 0.039	 0.099	 0.0016	 39.0	 67.0	 67.0	 0.0	 0.0	 1	 -15.673393	 15.673393;
	133	 137	 0.0134	 0.0504	 0.001	 60.0	 81.0	 81.0	 0.0	 0.0	 1	 -15.673393	 15.673393;
	135	 138	 0.0466	 0.1182	 0.002	 39.0	 67.0	 67.0	 0.0	 0.0	 1	 -15.673393	 15.673393;
	136	 139	 0.026	 0.065	 0.001	 39.0	 66.0	 66.0	 0.0	 0.0	 1	 -15.673393	 15.673393;
	137	 140	 0.0041	 0.0156	 0.0004	 60.0	 81.0	 81.0	 0.0	 0.0	 1	 -15.673393	 15.673393;
	138	 110	 0.0	 0.041	 0.0	 160.0	 716.0	 716.0	 1.0	 0.0	 1	 -15.673393	 15.673393;
	138	 139	 0.026	 0.065	 0.001	 39.0	 66.0	 66.0	 0.0	 0.0	 1	 -15.673393	 15.673393;
	138	 140	 0.0251	 0.0941	 0.0018	 60.0	 80.0	 80.0	 0.0	 0.0	 1	 -15.673393	 15.673393;
	138	 145	 0.0923	 0.2338	 0.0038	 39.0	 67.0	 67.0	 0.0	 0.0	 1	 -15.673393	 15.673393;
	142	 51	 0.0	 0.1728	 0.0	 83.0	 170.0	 170.0	 1.07	 0.0	 1	 -15.673393	 15.673393;
	142	 143	 0.1582	 0.3919	 0.0068	 44.0	 66.0	 66.0	 0.0	 0.0	 1	 -15.673393	 15.673393;
	142	 146	 0.1618	 0.3861	 0.007	 44.0	 65.0	 65.0	 0.0	 0.0	 1	 -15.673393	 15.673393;
	143	 144	 0.0927	 0.2322	 0.002	 44.0	 66.0	 66.0	 0.0	 0.0	 1	 -15.673393	 15.673393;
	144	 141	 0.0	 0.082	 0.0	 80.0	 358.0	 358.0	 1.0249	 0.0	 1	 -15.673393	 15.673393;
	144	 145	 0.089	 0.221	 0.0032	 39.0	 66.0	 66.0	 0.0	 0.0	 1	 -15.673393	 15.673393;
	144	 146	 0.068	 0.2906	 0.0058	 60.0	 86.0	 86.0	 0.0	 0.0	 1	 -15.673393	 15.673393;
	148	 116	 0.0	 0.041	 0.0	 160.0	 716.0	 716.0	 1.0	 0.0	 1	 -15.673393	 15.673393;
	149	 26	 0.0	 0.0386	 0.0	 300.0	 760.0	 760.0	 1.0	 0.0	 1	 -15.673393	 15.673393;
	149	 26	 0.0	 0.0386	 0.0	 300.0	 760.0	 760.0	 1.0	 0.0	 1	 -15.673393	 15.673393;
	149	 150	 0.001	 0.0085	 0.002	 276.0	 276.0	 276.0	 0.0	 0.0	 1	 -15.673393	 15.673393;
	149	 151	 0.0039	 0.0262	 0.0138	 247.0	 247.0	 247.0	 0.0	 0.0	 1	 -15.673393	 15.673393;
	149	 152	 0.0253	 0.1168	 0.0544	 207.0	 207.0	 207.0	 0.0	 0.0	 1	 -15.673393	 15.673393;
	151	 161	 0.0021	 0.0138	 0.0074	 244.0	 244.0	 244.0	 0.0	 0.0	 1	 -15.673393	 15.673393;
	153	 70	 0.0	 0.0916	 0.0	 93.0	 321.0	 321.0	 1.0	 0.0	 1	 -15.673393	 15.673393;
	153	 70	 0.0	 0.0916	 0.0	 93.0	 321.0	 321.0	 1.0	 0.0	 1	 -15.673393	 15.673393;
	153	 154	 0.071	 0.2841	 0.0054	 50.0	 83.0	 83.0	 0.0	 0.0	 1	 -15.673393	 15.673393;
	153	 155	 0.043	 0.1856	 0.0038	 66.0	 86.0	 86.0	 0.0	 0.0	 1	 -15.673393	 15.673393;
	154	 156	 0.0155	 0.0379	 0.0008	 50.0	 66.0	 66.0	 0.0	 0.0	 1	 -15.673393	 15.673393;
	154	 160	 0.0102	 0.0429	 0.001	 50.0	 85.0	 85.0	 0.0	 0.0	 1	 -15.673393	 15.673393;
	155	 156	 0.0176	 0.0822	 0.0014	 66.0	 89.0	 89.0	 0.0	 0.0	 1	 -15.673393	 15.673393;
	156	 157	 0.053	 0.1273	 0.0022	 33.0	 65.0	 65.0	 0.0	 0.0	 1	 -15.673393	 15.673393;
	157	 55	 0.0	 0.0827	 0.0	 150.0	 355.0	 355.0	 1.0	 0.0	 1	 -15.673393	 15.673393;
	157	 158	 0.0489	 0.1404	 0.0028	 50.0	 71.0	 71.0	 0.0	 0.0	 1	 -15.673393	 15.673393;
	158	 159	 0.0339	 0.0664	 0.0012	 50.0	 59.0	 59.0	 0.0	 0.0	 1	 -15.673393	 15.673393;
	159	 160	 0.019	 0.0811	 0.012	 50.0	 86.0	 86.0	 0.0	 0.0	 1	 -15.673393	 15.673393;
	161	 162	 0.0022	 0.0103	 0.0054	 208.0	 208.0	 208.0	 0.0	 0.0	 1	 -15.673393	 15.673393;
];

% INFO    : === Translation Options ===
% INFO    : Phase Angle Bound:           15.673393 (deg.)
% INFO    : AC OPF Solution File:        ./nesta_case162_ieee_dtc__sad.m.opf.sol
% INFO    : 
% INFO    : === Voltage Setpoint Replacement Notes ===
% INFO    : Bus 1	: V=1.03841, theta=2.00301 -> V=1.02789, theta=2.32884
% INFO    : Bus 2	: V=1.03378, theta=-3.04416 -> V=1.0227, theta=-2.7858
% INFO    : Bus 3	: V=0.99919, theta=-5.84738 -> V=0.99204, theta=-5.87819
% INFO    : Bus 4	: V=1.01636, theta=-7.23222 -> V=1.00676, theta=-7.11298
% INFO    : Bus 5	: V=1.05565, theta=2.66535 -> V=1.04349, theta=3.07882
% INFO    : Bus 6	: V=0.99069, theta=9.00459 -> V=0.98181, theta=9.45996
% INFO    : Bus 7	: V=1.0303, theta=-3.38787 -> V=1.01759, theta=-3.11439
% INFO    : Bus 8	: V=1.04986, theta=-6.79833 -> V=1.03745, theta=-6.59509
% INFO    : Bus 9	: V=1.03496, theta=-0.68791 -> V=1.01971, theta=-0.32041
% INFO    : Bus 10	: V=0.98425, theta=-11.51262 -> V=0.99714, theta=-11.13504
% INFO    : Bus 11	: V=0.99306, theta=-7.9075 -> V=1.00781, theta=-7.59751
% INFO    : Bus 12	: V=1.05081, theta=-6.63908 -> V=1.03916, theta=-6.44751
% INFO    : Bus 13	: V=1.0316, theta=-4.40087 -> V=1.02605, theta=-4.20889
% INFO    : Bus 14	: V=1.05121, theta=-3.78636 -> V=1.03513, theta=-3.4709
% INFO    : Bus 15	: V=1.01582, theta=0.1824 -> V=1.02389, theta=0.31902
% INFO    : Bus 16	: V=1.05379, theta=-4.87705 -> V=1.05431, theta=-4.88473
% INFO    : Bus 17	: V=1.05776, theta=-4.24833 -> V=1.05713, theta=-4.26779
% INFO    : Bus 18	: V=1.06, theta=-8.61557 -> V=1.06, theta=-8.62106
% INFO    : Bus 19	: V=1.00211, theta=-12.5954 -> V=0.99877, theta=-12.72405
% INFO    : Bus 20	: V=0.96468, theta=-9.76822 -> V=0.9868, theta=-9.22331
% INFO    : Bus 21	: V=1.04663, theta=-5.51941 -> V=1.04451, theta=-5.55663
% INFO    : Bus 22	: V=1.029, theta=-12.00735 -> V=1.02558, theta=-12.08144
% INFO    : Bus 23	: V=0.99529, theta=-10.18928 -> V=1.00043, theta=-10.0167
% INFO    : Bus 24	: V=1.00467, theta=-8.42203 -> V=1.00889, theta=-8.28086
% INFO    : Bus 25	: V=0.99105, theta=-4.33107 -> V=0.99384, theta=-4.2469
% INFO    : Bus 26	: V=1.00175, theta=4.12158 -> V=1.00175, theta=4.22153
% INFO    : Bus 27	: V=0.99653, theta=-5.40466 -> V=0.9995, theta=-5.36582
% INFO    : Bus 28	: V=0.98679, theta=-11.18566 -> V=0.99024, theta=-11.05682
% INFO    : Bus 29	: V=0.99025, theta=-12.88138 -> V=0.99271, theta=-12.79131
% INFO    : Bus 30	: V=1.01124, theta=-14.56723 -> V=1.01172, theta=-14.5365
% INFO    : Bus 31	: V=0.98946, theta=-12.02843 -> V=0.99215, theta=-11.94776
% INFO    : Bus 32	: V=1.01356, theta=-15.77456 -> V=1.01313, theta=-15.75471
% INFO    : Bus 33	: V=0.99874, theta=-17.67449 -> V=0.99774, theta=-17.65059
% INFO    : Bus 34	: V=0.99095, theta=-17.56616 -> V=0.98794, theta=-17.55861
% INFO    : Bus 35	: V=0.98545, theta=-19.00878 -> V=0.98334, theta=-19.03149
% INFO    : Bus 36	: V=0.99269, theta=-17.91972 -> V=0.9925, theta=-17.8587
% INFO    : Bus 37	: V=0.99861, theta=-5.39165 -> V=0.99862, theta=-5.41645
% INFO    : Bus 38	: V=1.01274, theta=-12.54024 -> V=1.00852, theta=-12.63247
% INFO    : Bus 39	: V=0.9792, theta=-7.50903 -> V=0.97686, theta=-7.58067
% INFO    : Bus 40	: V=0.99078, theta=-16.47291 -> V=0.98739, theta=-16.53587
% INFO    : Bus 41	: V=0.99247, theta=-14.45661 -> V=0.98853, theta=-14.52621
% INFO    : Bus 42	: V=0.98405, theta=-7.03126 -> V=0.98086, theta=-7.13078
% INFO    : Bus 43	: V=0.98744, theta=-10.08503 -> V=0.98387, theta=-10.34002
% INFO    : Bus 44	: V=0.98209, theta=-10.55835 -> V=0.97605, theta=-10.77043
% INFO    : Bus 45	: V=0.98357, theta=-11.54564 -> V=0.99018, theta=-11.33133
% INFO    : Bus 46	: V=0.98418, theta=-14.5394 -> V=0.99384, theta=-14.24246
% INFO    : Bus 47	: V=0.96768, theta=-16.56057 -> V=0.97052, theta=-16.39379
% INFO    : Bus 48	: V=0.97005, theta=-14.45376 -> V=0.96595, theta=-14.431
% INFO    : Bus 49	: V=0.96562, theta=-16.92507 -> V=0.96861, theta=-16.75437
% INFO    : Bus 50	: V=0.97098, theta=-13.06146 -> V=0.96496, theta=-13.14407
% INFO    : Bus 51	: V=0.97527, theta=-11.58712 -> V=0.9665, theta=-11.55326
% INFO    : Bus 52	: V=1.00857, theta=-13.34563 -> V=1.00188, theta=-13.33568
% INFO    : Bus 53	: V=0.98237, theta=-7.41884 -> V=1.00195, theta=-7.03408
% INFO    : Bus 54	: V=0.9712, theta=-13.40445 -> V=0.97955, theta=-13.12982
% INFO    : Bus 55	: V=0.98193, theta=-7.21325 -> V=1.00226, theta=-6.82801
% INFO    : Bus 56	: V=0.97809, theta=-15.73791 -> V=0.98286, theta=-15.52722
% INFO    : Bus 57	: V=0.97151, theta=-13.10925 -> V=0.9809, theta=-12.79744
% INFO    : Bus 58	: V=1.00672, theta=-4.29637 -> V=1.01747, theta=-4.08509
% INFO    : Bus 59	: V=0.98223, theta=-8.91224 -> V=0.99535, theta=-8.59154
% INFO    : Bus 60	: V=1.00349, theta=-9.52202 -> V=1.01344, theta=-9.23834
% INFO    : Bus 61	: V=0.98819, theta=-7.01415 -> V=0.99837, theta=-6.76182
% INFO    : Bus 62	: V=1.02115, theta=6.38245 -> V=1.02712, theta=6.43505
% INFO    : Bus 63	: V=0.99077, theta=-5.25782 -> V=1.00019, theta=-5.03733
% INFO    : Bus 64	: V=1.02579, theta=-4.62424 -> V=1.03768, theta=-4.4243
% INFO    : Bus 65	: V=1.02705, theta=-0.82502 -> V=1.03496, theta=-0.71677
% INFO    : Bus 66	: V=0.99779, theta=-7.08482 -> V=1.01188, theta=-6.80611
% INFO    : Bus 67	: V=0.99032, theta=-16.64837 -> V=0.99156, theta=-16.52382
% INFO    : Bus 68	: V=1.00126, theta=-14.89422 -> V=1.00009, theta=-14.80093
% INFO    : Bus 69	: V=1.00739, theta=-13.47291 -> V=1.00538, theta=-13.38586
% INFO    : Bus 70	: V=0.99862, theta=-1.75835 -> V=1.03133, theta=-1.5026
% INFO    : Bus 71	: V=0.96918, theta=-9.19042 -> V=0.99318, theta=-8.76415
% INFO    : Bus 72	: V=1.03888, theta=-3.64671 -> V=1.0236, theta=-3.32297
% INFO    : Bus 73	: V=0.96775, theta=-1.75835 -> V=1.04231, theta=-1.25968
% INFO    : Bus 74	: V=0.99758, theta=-7.80156 -> V=0.99365, theta=-7.71939
% INFO    : Bus 75	: V=1.03612, theta=1.71615 -> V=1.01876, theta=2.17598
% INFO    : Bus 76	: V=0.95868, theta=10.46393 -> V=0.94976, theta=10.54803
% INFO    : Bus 77	: V=0.99986, theta=-15.05788 -> V=0.99752, theta=-14.99475
% INFO    : Bus 78	: V=1.00843, theta=-12.81007 -> V=1.00685, theta=-12.70372
% INFO    : Bus 79	: V=1.01792, theta=-10.56934 -> V=1.01486, theta=-10.48255
% INFO    : Bus 80	: V=0.98982, theta=-13.41414 -> V=0.99346, theta=-13.20983
% INFO    : Bus 81	: V=0.98787, theta=-20.88962 -> V=0.98385, theta=-20.99656
% INFO    : Bus 82	: V=0.98812, theta=-16.40971 -> V=0.98455, theta=-16.47807
% INFO    : Bus 83	: V=0.99036, theta=-15.4461 -> V=0.98661, theta=-15.51521
% INFO    : Bus 84	: V=0.98275, theta=-11.75494 -> V=0.97811, theta=-11.81023
% INFO    : Bus 85	: V=0.9498, theta=-17.47858 -> V=0.9627, theta=-17.07401
% INFO    : Bus 86	: V=0.94821, theta=-20.57928 -> V=0.95327, theta=-20.34953
% INFO    : Bus 87	: V=0.95729, theta=-18.7354 -> V=0.96109, theta=-18.54009
% INFO    : Bus 88	: V=0.96959, theta=-19.37665 -> V=0.96558, theta=-19.41299
% INFO    : Bus 89	: V=0.96874, theta=-21.67672 -> V=0.97267, theta=-21.50212
% INFO    : Bus 90	: V=0.94, theta=-23.96323 -> V=0.94, theta=-23.84355
% INFO    : Bus 91	: V=0.98464, theta=-10.50216 -> V=0.97016, theta=-10.45386
% INFO    : Bus 92	: V=0.97563, theta=-11.71503 -> V=0.96463, theta=-11.79554
% INFO    : Bus 93	: V=0.98672, theta=-5.99591 -> V=0.98123, theta=-6.00241
% INFO    : Bus 94	: V=1.00477, theta=-11.29923 -> V=0.9995, theta=-11.48725
% INFO    : Bus 95	: V=1.00693, theta=-10.37608 -> V=0.98112, theta=-10.11222
% INFO    : Bus 96	: V=0.98822, theta=-19.48988 -> V=0.97763, theta=-19.4944
% INFO    : Bus 97	: V=1.00052, theta=-11.51347 -> V=0.98874, theta=-11.71517
% INFO    : Bus 98	: V=1.00417, theta=-8.88521 -> V=0.99174, theta=-8.84996
% INFO    : Bus 99	: V=1.01047, theta=-4.82034 -> V=0.94, theta=-3.62797
% INFO    : Bus 100	: V=0.97632, theta=-20.354 -> V=0.96891, theta=-20.38095
% INFO    : Bus 101	: V=0.99547, theta=-14.04737 -> V=0.98545, theta=-13.93663
% INFO    : Bus 102	: V=0.97743, theta=-11.34282 -> V=0.96914, theta=-11.49783
% INFO    : Bus 103	: V=0.99036, theta=-9.15198 -> V=0.98767, theta=-9.43227
% INFO    : Bus 104	: V=0.98416, theta=-19.21613 -> V=0.97986, theta=-19.2375
% INFO    : Bus 105	: V=1.01742, theta=-13.01005 -> V=1.01074, theta=-13.13569
% INFO    : Bus 106	: V=0.97483, theta=-17.40352 -> V=0.9702, theta=-17.47574
% INFO    : Bus 107	: V=0.96026, theta=-18.38815 -> V=0.95648, theta=-18.56534
% INFO    : Bus 108	: V=0.94, theta=0.0 -> V=0.94, theta=-0.0
% INFO    : Bus 109	: V=0.99767, theta=-7.34244 -> V=0.99515, theta=-7.54585
% INFO    : Bus 110	: V=1.04147, theta=-2.24956 -> V=1.02488, theta=-1.85984
% INFO    : Bus 111	: V=1.01396, theta=-6.86474 -> V=0.9991, theta=-6.64905
% INFO    : Bus 112	: V=1.04451, theta=0.26355 -> V=1.02634, theta=0.74147
% INFO    : Bus 113	: V=1.03903, theta=-3.68854 -> V=1.02325, theta=-3.36121
% INFO    : Bus 114	: V=1.02037, theta=4.06326 -> V=1.00451, theta=4.65736
% INFO    : Bus 115	: V=1.01389, theta=-9.64944 -> V=1.00474, theta=-9.57584
% INFO    : Bus 116	: V=1.01768, theta=-11.10399 -> V=1.0099, theta=-11.07664
% INFO    : Bus 117	: V=1.00905, theta=-11.70262 -> V=1.00069, theta=-11.67085
% INFO    : Bus 118	: V=1.01167, theta=-7.97823 -> V=1.00548, theta=-7.89898
% INFO    : Bus 119	: V=1.00293, theta=-9.04543 -> V=0.99545, theta=-8.99532
% INFO    : Bus 120	: V=1.0417, theta=-0.15105 -> V=1.02514, theta=0.27461
% INFO    : Bus 121	: V=1.02461, theta=7.65514 -> V=0.99617, theta=8.64748
% INFO    : Bus 122	: V=0.94513, theta=-20.54195 -> V=0.94291, theta=-20.796
% INFO    : Bus 123	: V=0.94, theta=-21.02418 -> V=0.94, theta=-21.36602
% INFO    : Bus 124	: V=0.9896, theta=-5.353 -> V=0.98746, theta=-5.60802
% INFO    : Bus 125	: V=1.02519, theta=-4.94102 -> V=1.03313, theta=-5.69263
% INFO    : Bus 126	: V=1.01012, theta=-1.57319 -> V=1.01263, theta=-1.58257
% INFO    : Bus 127	: V=1.02141, theta=-4.61652 -> V=1.02129, theta=-4.64094
% INFO    : Bus 128	: V=1.03875, theta=-0.09955 -> V=1.0221, theta=0.31939
% INFO    : Bus 129	: V=1.0434, theta=-0.28444 -> V=1.02741, theta=0.12742
% INFO    : Bus 130	: V=1.03531, theta=9.16491 -> V=1.00012, theta=10.21294
% INFO    : Bus 131	: V=1.06, theta=6.53385 -> V=1.05077, theta=7.02686
% INFO    : Bus 132	: V=1.04332, theta=-3.16201 -> V=1.02769, theta=-2.82978
% INFO    : Bus 133	: V=1.04921, theta=-4.88748 -> V=1.03267, theta=-4.59003
% INFO    : Bus 134	: V=1.03698, theta=-3.58738 -> V=1.02099, theta=-3.25286
% INFO    : Bus 135	: V=1.046, theta=-4.931 -> V=1.02944, theta=-4.63424
% INFO    : Bus 136	: V=1.03931, theta=-5.19161 -> V=1.02267, theta=-4.90232
% INFO    : Bus 137	: V=1.043, theta=-5.15319 -> V=1.0264, theta=-4.86309
% INFO    : Bus 138	: V=1.04504, theta=-3.99854 -> V=1.02858, theta=-3.6683
% INFO    : Bus 139	: V=1.04026, theta=-4.75386 -> V=1.02368, theta=-4.44915
% INFO    : Bus 140	: V=1.04247, theta=-5.0798 -> V=1.02588, theta=-4.78691
% INFO    : Bus 141	: V=1.00394, theta=-6.81384 -> V=0.99009, theta=-6.60417
% INFO    : Bus 142	: V=1.01574, theta=-13.80444 -> V=1.00424, theta=-13.82862
% INFO    : Bus 143	: V=1.00131, theta=-12.43908 -> V=0.9878, theta=-12.40331
% INFO    : Bus 144	: V=1.02242, theta=-9.08363 -> V=1.00823, theta=-8.93986
% INFO    : Bus 145	: V=1.02568, theta=-7.20405 -> V=1.01022, theta=-6.98956
% INFO    : Bus 146	: V=1.00513, theta=-12.94527 -> V=0.99182, theta=-12.9178
% INFO    : Bus 147	: V=1.00467, theta=-12.76656 -> V=0.99646, theta=-12.75761
% INFO    : Bus 148	: V=1.00673, theta=-13.8565 -> V=0.99884, theta=-13.87231
% INFO    : Bus 149	: V=0.99853, theta=-1.71655 -> V=1.02935, theta=-1.46155
% INFO    : Bus 150	: V=0.99638, theta=-2.32723 -> V=1.02667, theta=-2.05668
% INFO    : Bus 151	: V=0.98777, theta=-4.26609 -> V=1.01479, theta=-3.93103
% INFO    : Bus 152	: V=1.0153, theta=-2.75639 -> V=1.02802, theta=-2.4461
% INFO    : Bus 153	: V=0.99127, theta=-3.8473 -> V=1.02276, theta=-3.51386
% INFO    : Bus 154	: V=0.95381, theta=-9.73237 -> V=0.98147, theta=-9.15677
% INFO    : Bus 155	: V=0.963, theta=-8.0248 -> V=0.99165, theta=-7.51267
% INFO    : Bus 156	: V=0.95789, theta=-9.37022 -> V=0.98503, theta=-8.81542
% INFO    : Bus 157	: V=0.96461, theta=-9.69012 -> V=0.98734, theta=-9.14501
% INFO    : Bus 158	: V=0.94983, theta=-10.88283 -> V=0.97512, theta=-10.26924
% INFO    : Bus 159	: V=0.94882, theta=-10.80795 -> V=0.97512, theta=-10.19837
% INFO    : Bus 160	: V=0.95057, theta=-10.35266 -> V=0.97786, theta=-9.75206
% INFO    : Bus 161	: V=0.98423, theta=-5.44125 -> V=1.00918, theta=-5.07955
% INFO    : Bus 162	: V=0.98262, theta=-6.13974 -> V=1.00596, theta=-5.76445
% INFO    : 
% INFO    : === Generator Setpoint Replacement Notes ===
% INFO    : Gen at bus 6	: Pg=896.341, Qg=81.074 -> Pg=895.486, Qg=90.023
% INFO    : Gen at bus 6	: Vg=0.99069 -> Vg=0.98181
% INFO    : Gen at bus 73	: Pg=0.0, Qg=36.12 -> Pg=22.249, Qg=267.0
% INFO    : Gen at bus 73	: Vg=0.96775 -> Vg=1.04231
% INFO    : Gen at bus 76	: Pg=1244.016, Qg=15.937 -> Pg=1229.38, Qg=-88.012
% INFO    : Gen at bus 76	: Vg=0.95868 -> Vg=0.94976
% INFO    : Gen at bus 99	: Pg=139.67, Qg=54.702 -> Pg=147.672, Qg=-9.351
% INFO    : Gen at bus 99	: Vg=1.01047 -> Vg=0.94
% INFO    : Gen at bus 101	: Pg=87.898, Qg=38.6 -> Pg=87.898, Qg=38.6
% INFO    : Gen at bus 101	: Vg=0.99547 -> Vg=0.98545
% INFO    : Gen at bus 108	: Pg=598.998, Qg=34.661 -> Pg=596.311, Qg=66.429
% INFO    : Gen at bus 108	: Vg=0.94 -> Vg=0.94
% INFO    : Gen at bus 114	: Pg=146.325, Qg=33.0 -> Pg=146.325, Qg=33.0
% INFO    : Gen at bus 114	: Vg=1.02037 -> Vg=1.00451
% INFO    : Gen at bus 118	: Pg=175.997, Qg=95.0 -> Pg=175.997, Qg=95.0
% INFO    : Gen at bus 118	: Vg=1.01167 -> Vg=1.00548
% INFO    : Gen at bus 121	: Pg=690.204, Qg=204.985 -> Pg=704.982, Qg=146.287
% INFO    : Gen at bus 121	: Vg=1.02461 -> Vg=0.99617
% INFO    : Gen at bus 125	: Pg=2279.694, Qg=89.995 -> Pg=2241.096, Qg=144.554
% INFO    : Gen at bus 125	: Vg=1.02519 -> Vg=1.03313
% INFO    : Gen at bus 130	: Pg=562.859, Qg=131.428 -> Pg=575.271, Qg=56.098
% INFO    : Gen at bus 130	: Vg=1.03531 -> Vg=1.00012
% INFO    : Gen at bus 131	: Pg=580.0, Qg=269.995 -> Pg=580.0, Qg=290.0
% INFO    : Gen at bus 131	: Vg=1.06 -> Vg=1.05077
% INFO    : 
% INFO    : === Writing Matpower Case File Notes ===
